Circuit: * Z:\home\ostoja\Elektronika\PSG10M\simulacije\101_amp.asc

Direct Newton iteration failed to find .op point.  (Use ".option noopiter" to skip.)
Starting Gmin stepping
Gmin = 10
vernier = 0.5
Gmin = 1.67772
vernier = 0.25
vernier = 0.125
Gmin = 1.24103
vernier = 0.0625
vernier = 0.03125
Gmin = 1.14839
vernier = 0.0416667
vernier = 0.0208333
Gmin = 1.09313
vernier = 0.0277778
vernier = 0.0138889
vernier = 0.0185185
vernier = 0.00925925
Gmin = 1.07186
vernier = 0.0123457
vernier = 0.00617283
Gmin = 1.05546
vernier = 0.00823044
vernier = 0.00411522
vernier = 0.00548696
Gmin = 1.04556
vernier = 0.00274348
vernier = 0.00365797
Gmin = 1.03913
vernier = 0.0048773
vernier = 0.00243865
Gmin = 1.03313
vernier = 0.00325153
vernier = 0.00162576
vernier = 0.00216769
Gmin = 1.02936
vernier = 0.00108384
vernier = 0.00144512
Gmin = 1.02648
vernier = 0.00192683
vernier = 0.000963415
Gmin = 1.02389
vernier = 0.00128455
vernier = 0.000642277
Gmin = 1.02159
vernier = 0.000856369
Gmin = 1.01963
vernier = 0.00114182
vernier = 0.000570912
vernier = 0.000761216
Gmin = 1.01832
vernier = 0.00101495
vernier = 0.000507477
Gmin = 1.01709
vernier = 0.000676636
vernier = 0.000902182
vernier = 0.000451091
Gmin = 1.01583
vernier = 0.000601454
vernier = 0.000451091
Gmin = 1.01472
vernier = 0.000601454
vernier = 0.000451091
Gmin = 1.01381
vernier = 0.000601454
vernier = 0.000451091
vernier = 0.000601454
Gmin = 1.01286
vernier = 0.00045109
Gmin = 0
Gmin stepping failed

Starting source stepping with srcstepmethod=0
Source Step = 3.0303%
Source Step = 33.3333%
Source Step = 63.6364%
Source Step = 93.9394%
Source stepping succeeded in finding the operating point.

Heightened Def Con from 7.77622e-005 to 7.77622e-005

Date: Sun Jan 05 16:57:00 2025
Total elapsed time: 2.033 seconds.

tnom = 27
temp = 27
method = modified trap
totiter = 99530
traniter = 84941
tranpoints = 16066
accept = 11676
rejected = 4391
matrix size = 171
fillins = 202
solver = Normal
Thread vector: 5.4/3.3[5] 2.2/2.3[1] 2.4/2.5[1] 0.3/0.9[1]  2592/500
Matrix Compiler1: 14.97 KB object code size  2.3/0.8/[0.6]
Matrix Compiler2: 17.93 KB object code size  1.2/1.3/[0.8]

