Circuit: * Z:\home\ostoja\Elektronika\PSG10M\simulacije\701_capacitance_multiplier.asc

WARNING: Specified period is not longer than the sum of Trise, Tfall, and Ton for v3.  Increasing period to 1.001e-006
WARNING: Specified period is not longer than the sum of Trise, Tfall, and Ton for v1.  Increasing period to 2.0001e-005
WARNING: Less than two connections to node VEE_IN.  This node is used by B1.
Direct Newton iteration for .op point succeeded.
Heightened Def Con from 0.318626 to 0.318626

Date: Sat Nov 02 19:01:18 2024
Total elapsed time: 42.127 seconds.

tnom = 27
temp = 27
method = modified trap
totiter = 26077392
traniter = 26077365
tranpoints = 12979340
accept = 11230823
rejected = 1748518
matrix size = 21
fillins = 5
solver = Normal
Matrix Compiler1:      84 opcodes  0.2/[0.1]/0.2
Matrix Compiler2:     136 opcodes  0.2/[0.2]/0.2

