Circuit: * Z:\home\ostoja\Elektronika\PSG10M\simulacije\801_PWM_DAC.asc

WARNING: Specified period is not longer than the sum of Trise, Tfall, and Ton for v1.  Increasing period to 2.0001e-005
.OP point found by inspection.

Date: Sat Nov 02 19:42:03 2024
Total elapsed time: 2.341 seconds.

tnom = 27
temp = 27
method = modified trap
totiter = 3165450
traniter = 3165450
tranpoints = 1582726
accept = 1458177
rejected = 124549
matrix size = 4
fillins = 0
solver = Normal
Matrix Compiler1:       6 opcodes  0.1/[0.1]/0.1
Matrix Compiler2: off
