Circuit: * Z:\home\ostoja\Elektronika\PSG10M\simulacije\901_output_filter.asc


Date: Sat Nov 02 20:36:54 2024
Total elapsed time: 0.028 seconds.

tnom = 27
temp = 27
method = trap
totiter = 0
traniter = 0
tranpoints = 0
accept = 0
rejected = 0
matrix size = 5
fillins = 1
solver = Normal

